8

 C                  0.00000000    0.00000000    0.66493700
 C                  0.00000000    0.00000000   -0.66493700
 H                  0.00000000    0.92248600    1.23886600
 H                  0.00000000   -0.92248600    1.23886600
 H                  0.00000000   -0.92248600   -1.23886600
 H                  0.00000000    0.92248600   -1.23886600
 F                 -1.45457523    0.17126603    0.33189681
 H                 -1.18820055    0.13978187   -0.55377615