8

 C                 -0.76478600   -0.00000100   -0.00000300
 C                  0.76478600    0.00000100    0.00000300
 H                 -1.16413400    0.29514300    0.97602900
 H                 -1.16413300    0.69775500   -0.74356600
 H                 -1.16423600   -0.99280600   -0.23243100
 H                  1.16413300   -0.29516700   -0.97602300
 H                  1.16423800    0.99281100    0.23240600
 H                  1.16413400   -0.69773700    0.74358200