8

 C                  0.67452372    0.00174977   -0.11781778
 C                 -0.65866674    0.00268522   -0.13408222
 H                  1.24959424    0.93248969   -0.09999440
 H                  1.24854938   -0.92979845   -0.12161967
 H                 -1.23373730   -0.92805475   -0.15190262
 H                 -1.23269244    0.93423340   -0.13027735
 H                  0.31736435   -0.01302314    1.01226169
 H                 -0.44422009   -0.02245668    1.00293235