 8
#Nstep =    0, time =    0.00 fs, using Velocity Verlet.
C   -0.7647860000  -0.0000010000  -0.0000030000
C    0.7647860000   0.0000010000   0.0000030000
H   -1.1641340000   0.2951430000   0.9760290000
H   -1.1641330000   0.6977550000  -0.7435660000
H   -1.1642360000  -0.9928060000  -0.2324310000
H    1.1641330000  -0.2951670000  -0.9760230000
H    1.1642380000   0.9928110000   0.2324060000
H    1.1641340000  -0.6977370000   0.7435820000
 8
#Nstep =    1, time =    0.50 fs, using Velocity Verlet.
C   -0.7644484404  -0.0007738368   0.0022791409
C    0.7632218552   0.0002745690  -0.0004650530
H   -1.1600441695   0.3141162085   0.9846212789
H   -1.1657788291   0.6966236459  -0.7507926773
H   -1.1898150257  -0.9951854905  -0.2360784522
H    1.1720554976  -0.2956253792  -0.9700839414
H    1.1649847951   0.9915135361   0.2335835763
H    1.1828337762  -0.7097200913   0.7324851770
